20

C      15.250550    8.437755   15.245168 
C      15.066868   10.265217   14.091253 
C      14.067728   10.240130   15.057423 
C      15.769703    7.170020   15.728123 
H      15.289890   11.026455   13.352688 
H      13.312896   10.984076   15.282408 
H      16.689814    6.816198   15.209056 
O      15.260012    6.517810   16.639084 
N      15.812151    9.131545   14.210698 
N      14.182330    9.091996   15.774165 
C      15.250550    8.437755   15.245168 
C      15.066868   10.265217   14.091253 
C      14.067728   10.240130   15.057423 
C      15.769703    7.170020   15.728123 
H      15.289890   11.026455   13.352688 
H      13.312896   10.984076   15.282408 
N      15.812151    9.131545   14.210698 
N      14.182330    9.091996   15.774165 
O      15.438090    6.072818   15.279575 
H      16.506586    7.255564    16.55933 
