252
VESTA_phase_1
Zn      4.323041    8.575233    0.086707
C       0.150565    6.450480   10.717755
C       1.432364    6.908918   10.218245
H       1.800665    6.363485    9.317477
O       2.084222    7.821549   10.730816
C       2.180915    8.746679   14.989933
C       2.349215    6.917538   13.832896
C       1.670533   10.919641   11.880709
C       1.663885   11.903966   10.897734
C       3.357075    6.941160   14.791401
C       1.669606   10.022874   15.454248
Zn      0.068523    8.577645   12.834473
H       2.123549    6.176926   13.073759
H       2.423948   10.681968   12.624005
H       2.396983   12.670875   10.674904
H       4.119604    6.202998   15.017147
H       0.745695   10.364672   14.927661
O       2.186492   10.696538   16.346678
N       1.611140    8.050483   13.966854
N       0.521878   10.203343   11.772431
N       0.514725   11.789913   10.182351
N       3.249607    8.091072   15.504363
N       0.510803    5.400328    7.004648
N       1.568794    3.240957    9.039331
Zn      0.076559    8.627033    4.366235
C       0.167890   10.782116    6.465817
C       1.448610   10.318581    6.966759
H       1.826550   10.872712    7.857603
O       2.085605    9.389838    6.465697
N       1.563290   13.983053    8.059545
C      10.667119    0.149411    6.318371
C      10.182863    1.439177    6.770665
H       9.287587    1.816049    6.221928
O      10.701786    2.088922    7.681272
C      10.732614    6.398581    0.196793
C      10.230431    6.850407    1.478426
H       9.304538    6.330266    1.820771
O      10.767097    7.728209    2.159944
C       8.371171    2.110235    2.082172
C      10.190415    2.264771    3.253038
C      10.189330    3.265215    2.284199
C       7.098328    1.607883    1.596440
H      10.934438    2.025728    4.005713
H      10.940525    4.014549    2.058470
H       6.732752    0.694353    2.123983
O       6.455204    2.123071    0.680956
N       9.046158    1.539851    3.119438
N       9.045778    3.164648    1.560120
Zn     12.829645    0.046634    8.403510
N       7.011893    5.356508    0.461536
Zn     12.907893    8.519320    0.091550
N       6.926141    0.504586    5.290330
C       6.378234    0.165602   10.608130
C       6.869819    1.452697   10.152596
H       7.776490    1.818402   10.690131
O       6.346586    2.107895    9.249117
C      14.981065    2.150268    8.647826
C      14.813410    3.345182    6.847517
C      10.871325    1.676022   11.737049
C      15.477711    6.281583   11.889712
C      15.474645    5.287331   10.916645
C      11.871032    1.671688   10.767955
C      13.825140    2.367171    6.825895
C      15.428021    1.647943    9.931232
Zn     17.063074    4.306838    8.594642
H      15.034851    4.127753    6.130497
H      10.628075    2.424784   12.484421
H      14.739132    6.514031   12.650128
H      14.737045    4.522866   10.702766
H      12.615541    2.425276   10.534484
H      13.062010    2.163387    6.083878
H      14.884429    0.741697   10.288327
O      16.327874    2.164723   10.598803
N      15.532263    3.203497    7.991185
N      10.154392    0.526503   11.617773
N      16.622441    7.005268   11.761074
N      16.612787    5.402505   10.188575
N      11.770896    0.520488   10.055027
N      13.937939    1.625226    7.955155
C       2.083292    2.175116    8.372749
C       6.196565    1.645717    5.160959
C       2.316043    3.368898   10.165692
C       3.286065    2.371361   10.164191
C       5.202016    1.643840    6.133396
C       1.570784    1.691647    7.105695
Zn      4.226985    0.067931    8.466721
H       6.425304    2.384908    4.399997
H       2.111643    4.136158   10.904709
H       4.069313    2.160180   10.883428
H       4.432897    2.376932    6.345739
H       0.668257    2.229182    6.732299
O       2.077941    0.763057    6.470745
N       3.132574    1.626175    9.039450
N       5.322290    0.506605    6.862983
C       8.748925    2.083250   14.835360
C      10.952800    5.237920   15.435065
C       6.928123    2.276691   13.672662
C       6.960247    3.285716   14.630281
C      11.938466    6.219450   15.457301
C      10.016563    1.568586   15.318449
Zn      8.582874    4.240672   16.954790
H      10.746194    4.473440   14.695094
H       6.174775    2.052003   12.924676
H       6.243481    4.070636   14.842283
H      12.724948    6.434030   14.742310
H      10.368465    0.644352   14.801700
O      10.671066    2.088877   16.224180
N      10.203246    5.359081   16.558732
N       8.054198    1.523368   13.805426
N       8.102050    3.158199   15.349091
N      11.799767    6.945230   16.596945
C      16.981081   10.748755   10.733033
C      15.692256   10.265667   10.277039
H      15.318507    9.361406   10.812852
O      15.041099   10.795789    9.373662
Zn     17.090578   12.913346    8.640442
N      15.610165    9.090388   13.949802
C       6.490782   10.684523    0.171812
C       6.999327   10.224913    1.447954
H       7.918381   10.753109    1.795449
O       6.474856    9.332564    2.120555
C       2.159849    8.431203    2.189682
C       6.283352    5.221635    1.599731
C       2.367446   10.253978    3.350522
C       1.684991    6.275872    5.316862
C       1.669764    5.290860    6.300894
C       3.375133   10.212011    2.393773
C       5.304914    6.210647    1.618658
C       1.640978    7.159437    1.725111
H       6.493797    4.435838    2.316649
H       2.159958   10.995038    4.114229
H       2.446671    6.516670    4.582825
H       2.414207    4.539539    6.543811
H       4.166932   10.920880    2.180884
H       4.539478    6.422461    2.356123
H       0.714031    6.821035    2.247368
O       2.159656    6.483233    0.834455
N       1.606375    9.135947    3.215712
N       0.534955    6.990760    5.415966
N       3.240353    9.068791    1.678509
N       5.431435    6.956814    0.493934
C      15.067148    8.750471    2.209820
C      14.893442    6.945568    3.400534
C      10.925386   11.863678    1.610661
C      11.904845   10.875895    1.631890
C      13.892513    6.945456    2.433913
C      15.570650   10.017425    1.712664
H      15.123419    6.208488    4.162673
H      10.710735   12.649964    2.325942
H      12.668331   10.665869    2.372049
H      13.118787    6.214837    2.229208
H      16.485461   10.386867    2.234835
O      15.053305   10.653586    0.792900
N      15.628501    8.082370    3.256158
N      10.201137   11.727753    0.470096
N      11.783788   10.129370    0.506399
N      14.007732    8.077129    1.697027
C       8.739034   14.978822    2.071157
C      10.845066   15.478227    5.171770
C       6.881824   14.808965    3.181694
C       6.938707   13.789698    2.236660
C      11.824126   15.482446    6.160235
C      10.021359   15.492278    1.627406
Zn      8.510249   17.094650    4.215482
H      10.609405   14.724902    4.427842
H       6.120250   15.037255    3.919057
H       6.210940   13.021092    1.999438
H      12.587652   14.747735    6.389374
H      10.349476   16.423207    2.149543
O      10.713420   14.967876    0.753118
N      10.131145   16.628600    5.276313
N       8.011667   15.555274    3.068369
N       8.106291   13.898071    1.553436
N      11.707967   16.631810    6.874169
C       8.439286   15.014457   14.872703
C       6.230607   15.485551   11.742539
C       6.268207   11.869368   15.421475
C      10.252969   14.831258   13.693090
C      10.241763   13.832787   14.660479
C       5.284384   10.885548   15.439413
C       5.239074   15.496128   10.765789
C       7.165687   15.521061   15.346397
Zn      8.580195   17.093489   12.686499
Zn      8.634714   12.845611   16.969045
H       6.479687   14.725656   12.475776
H       6.469550   12.641568   14.688017
H      10.982027   15.046475   12.920038
H      10.968175   13.056831   14.872277
H       4.494225   10.676658   14.726741
H       4.489200   14.747602   10.530937
H       6.809794   16.436187   14.814404
O       6.506549   15.007828   16.252571
N       6.941525   16.637191   11.636802
N       7.022201   11.738642   16.540487
N       9.121087   15.570715   13.832862
N       9.104188   13.952164   15.387542
N       5.431061   10.150074   16.571453
N       5.339067   16.653877   10.058181
C      10.726895   17.006005   10.588555
C      10.262958   15.722424   10.096531
H      10.817209   15.335915    9.209762
O       9.332851   15.090378   10.602179
C       6.477980    6.424296   16.858636
C       6.935291    6.925900   15.578981
H       6.412587    7.848178   15.231077
O       7.821283    6.392849   14.904419
C      10.746063   10.670277   16.868117
C      10.295707   10.170723   15.584983
H      10.821651    9.249176   15.239466
O       9.414111   10.703734   14.905596
C       6.379320   16.992740    6.333769
C       6.843991   15.713414    6.834865
H       6.303544   15.346880    7.739572
O       7.756693   15.062965    6.321475
C      14.958697   15.052848    8.352441
C      14.761216   13.926746   10.194816
C      15.484496   10.927282    5.308012
C      15.484134   11.930078    6.273253
C      13.779337   14.911712   10.163390
C      15.459683   15.485253    7.062094
H      14.975829   13.179522   10.949878
H      14.738633   10.680437    4.558782
H      14.728581   12.675153    6.498726
H      13.016343   15.154468   10.895739
H      16.374238   14.946898    6.716833
O      14.934493   16.368178    6.380218
N      15.496210   14.024585    9.059281
N      16.633553   10.210976    5.434859
N      16.632204   11.833694    6.992848
N      13.905751   15.612049    9.004051
C      15.039093    8.384866   14.966214
C      14.868349   10.225309   13.831413
C      13.857380   10.188332   14.788468
C      15.554726    7.112277   15.438203
H      15.104404   10.988722   13.097239
H      13.095570   10.924021   15.023098
H      16.479483    6.766261   14.917856
O      15.036871    6.449990   16.338852
N      13.967767    9.031404   15.489136
C       2.128871   15.022860    8.728685
C       2.271352   13.866071    6.904060
C       3.262821   14.843319    6.891766
C       1.677720   15.519223   10.015365
H       2.027600   13.115852    6.158513
H       3.999274   15.074929    6.129627
H       2.224523   16.419769   10.381889
O       0.768150   15.004775   10.669413
N       3.167545   15.563987    8.038742
C      16.983873    6.441415    6.446412
C      15.694047    6.936909    6.890845
H      15.330482    7.836635    6.340010
O      15.033263    6.424104    7.795893
