276
zif8_exp_ddec 17.156614  17.156614   17.156614  90. 90. 90.
C   6.440232   0.120199   10.716381  
C   15.018539   8.698506   2.138074  
C   6.440232   17.036414   6.440232  
C   15.018539   8.458108   15.018539 
C   6.440232   10.716381   0.120199  
C   15.018539   2.138074   8.698506  
C   6.440232   6.440232   17.036414  
C   15.018539   15.018539   8.458108 
C   10.716381   0.120199   6.440232  
C   2.138074   8.698506   15.018539  
C   10.716381   17.036414   10.716381
C   2.138074   8.458108   2.138074   
C   10.716381   10.716381   17.036414
C   2.138074   2.138074   8.458108   
C   10.716381   6.440232   0.120199  
C   2.138074   15.018539   8.698506  
C   0.120199   6.440232   10.716381  
C   8.698506   15.018539   2.138074  
C   0.120199   10.716381   6.440232  
C   8.698506   2.138074   15.018539  
C   17.036414   6.440232   6.440232  
C   8.458108   15.018539   15.018539 
C   17.036414   10.716381   10.716381
C   8.458108   2.138074   2.138074   
C   6.351619   15.372360   11.773915 
C   14.929925   6.794053   3.195608  
C   6.351619   1.784253   5.382699   
C   14.929925   10.362560   13.961006
C   6.351619   11.773915   15.372360 
C   14.929925   3.195608   6.794053  
C   6.351619   5.382699   1.784253   
C   14.929925   13.961006   10.362560
C   10.804995   15.372360   5.382699 
C   2.226688   6.794053   13.961006  
C   10.804995   1.784253   11.773915 
C   2.226688   10.362560   3.195608  
C   10.804995   11.773915   1.784253 
C   2.226688   3.195608   10.362560  
C   10.804995   5.382699   15.372360 
C   2.226688   13.961006   6.794053  
C   15.372360   6.351619   11.773915 
C   6.794053   14.929925   3.195608  
C   15.372360   10.804995   5.382699 
C   6.794053   2.226688   13.961006  
C   15.372360   11.773915   6.351619 
C   6.794053   3.195608   14.929925  
C   15.372360   5.382699   10.804995 
C   6.794053   13.961006   2.226688  
C   1.784253   6.351619   5.382699   
C   10.362560   14.929925   13.961006
C   1.784253   10.804995   11.773915 
C   10.362560   2.226688   3.195608  
C   1.784253   11.773915   10.804995 
C   10.362560   3.195608   2.226688  
C   1.784253   5.382699   6.351619   
C   10.362560   13.961006   14.929925
C   11.773915   6.351619   15.372360 
C   3.195608   14.929925   6.794053  
C   11.773915   10.804995   1.784253 
C   3.195608   2.226688   10.362560  
C   11.773915   15.372360   6.351619 
C   3.195608   6.794053   14.929925  
C   11.773915   1.784253   10.804995 
C   3.195608   10.362560   2.226688  
C   5.382699   6.351619   1.784253   
C   13.961006   14.929925   10.362560
C   5.382699   10.804995   15.372360 
C   13.961006   2.226688   6.794053  
C   5.382699   15.372360   10.804995 
C   13.961006   6.794053   2.226688  
C   5.382699   1.784253   6.351619   
C   13.961006   10.362560   14.929925
C   6.940828   1.432766   10.215785  
C   15.519135   10.011073   1.637479 
C   6.940828   15.723848   6.940828  
C   15.519135   7.145541   15.519135 
C   6.940828   10.215785   1.432766  
C   15.519135   1.637479   10.011073 
C   6.940828   6.940828   15.723848  
C   15.519135   15.519135   7.145541 
C   10.215785   1.432766   6.940828  
C   1.637479   10.011073   15.519135 
C   10.215785   15.723848   10.215785
C   1.637479   7.145541   1.637479   
C   10.215785   10.215785   15.723848
C   1.637479   1.637479   7.145541   
C   10.215785   6.940828   1.432766  
C   1.637479   15.519135   10.011073 
C   1.432766   6.940828   10.215785  
C   10.011073   15.519135   1.637479 
C   1.432766   10.215785   6.940828  
C   10.011073   1.637479   15.519135 
C   15.723848   6.940828   6.940828  
C   7.145541   15.519135   15.519135 
C   15.723848   10.215785   10.215785
C   7.145541   1.637479   1.637479   
Zn   8.578307   0.000000   12.867460 
Zn   0.000000   8.578307   4.289153  
Zn   8.578307   0.000000   4.289153  
Zn   0.000000   8.578307   12.867460 
Zn   8.578307   12.867460   0.000000 
Zn   0.000000   4.289153   8.578307  
Zn   8.578307   4.289153   0.000000  
Zn   0.000000   12.867460   8.578307 
Zn   12.867460   8.578307   0.000000 
Zn   4.289153   0.000000   8.578307  
Zn   12.867460   0.000000   8.578307 
Zn   4.289153   8.578307   0.000000  
H   6.616637   14.603349   12.491044 
H   15.194944   6.025042   3.912737  
H   6.616637   2.553264   4.665569   
H   15.194944   11.131571   13.243876
H   6.616637   12.491044   14.603349 
H   15.194944   3.912737   6.025042  
H   6.616637   4.665569   2.553264   
H   15.194944   13.243876   11.131571
H   10.539977   14.603349   4.665569 
H   1.961670   6.025042   13.243876  
H   10.539977   2.553264   12.491044 
H   1.961670   11.131571   3.912737  
H   10.539977   12.491044   2.553264 
H   1.961670   3.912737   11.131571  
H   10.539977   4.665569   14.603349 
H   1.961670   13.243876   6.025042  
H   14.603349   6.616637   12.491044 
H   6.025042   15.194944   3.912737  
H   14.603349   10.539977   4.665569 
H   6.025042   1.961670   13.243876  
H   14.603349   12.491044   6.616637 
H   6.025042   3.912737   15.194944  
H   14.603349   4.665569   10.539977 
H   6.025042   13.243876   1.961670  
H   2.553264   6.616637   4.665569   
H   11.131571   15.194944   13.243876
H   2.553264   10.539977   12.491044 
H   11.131571   1.961670   3.912737  
H   2.553264   12.491044   10.539977 
H   11.131571   3.912737   1.961670  
H   2.553264   4.665569   6.616637   
H   11.131571   13.243876   15.194944
H   12.491044   6.616637   14.603349 
H   3.912737   15.194944   6.025042  
H   12.491044   10.539977   2.553264 
H   3.912737   1.961670   11.131571  
H   12.491044   14.603349   6.616637 
H   3.912737   6.025042   15.194944  
H   12.491044   2.553264   10.539977 
H   3.912737   11.131571   1.961670  
H   4.665569   6.616637   2.553264   
H   13.243876   15.194944   11.131571
H   4.665569   10.539977   14.603349 
H   13.243876   1.961670   6.025042  
H   4.665569   14.603349   10.539977 
H   13.243876   6.025042   1.961670  
H   4.665569   2.553264   6.616637   
H   13.243876   11.131571   15.194944
H   6.140541   2.022387   9.758047   
H   14.718847   10.600694   1.179740 
H   6.140541   15.134226   7.398567  
H   14.718847   6.555919   15.976873 
H   6.140541   9.758047   2.022387   
H   14.718847   1.179740   10.600694 
H   6.140541   7.398567   15.134226  
H   14.718847   15.976873   6.555919 
H   11.016073   2.022387   7.398567  
H   2.437766   10.600694   15.976873 
H   11.016073   15.134226   9.758047 
H   2.437766   6.555919   1.179740   
H   11.016073   9.758047   15.134226 
H   2.437766   1.179740   6.555919   
H   11.016073   7.398567   2.022387  
H   2.437766   15.976873   10.600694 
H   2.022387   6.140541   9.758047   
H   10.600694   14.718847   1.179740 
H   2.022387   11.016073   7.398567  
H   10.600694   2.437766   15.976873 
H   2.022387   9.758047   6.140541   
H   10.600694   1.179740   14.718847 
H   2.022387   7.398567   11.016073  
H   10.600694   15.976873   2.437766 
H   15.134226   6.140541   7.398567  
H   6.555919   14.718847   15.976873 
H   15.134226   11.016073   9.758047 
H   6.555919   2.437766   1.179740   
H   15.134226   9.758047   11.016073 
H   6.555919   1.179740   2.437766   
H   15.134226   7.398567   6.140541  
H   6.555919   15.976873   14.718847 
H   9.758047   6.140541   2.022387   
H   1.179740   14.718847   10.600694 
H   9.758047   11.016073   15.134226 
H   1.179740   2.437766   6.555919   
H   9.758047   2.022387   6.140541   
H   1.179740   10.600694   14.718847 
H   9.758047   15.134226   11.016073 
H   1.179740   6.555919   2.437766   
H   7.398567   6.140541   15.134226  
H   15.976873   14.718847   6.555919 
H   7.398567   11.016073   2.022387  
H   15.976873   2.437766   10.600694 
H   7.398567   2.022387   11.016073  
H   15.976873   10.600694   2.437766 
H   7.398567   15.134226   6.140541  
H   15.976873   6.555919   14.718847 
H   7.708484   1.266107   9.448130   
H   16.286790   9.844413   0.869823  
H   7.708484   15.890507   7.708484  
H   16.286790   7.312200   16.286790 
H   7.708484   9.448130   1.266107   
H   16.286790   0.869823   9.844413  
H   7.708484   7.708484   15.890507  
H   16.286790   16.286790   7.312200 
H   9.448130   1.266107   7.708484   
H   0.869823   9.844413   16.286790  
H   9.448130   15.890507   9.448130  
H   0.869823   7.312200   0.869823   
H   9.448130   9.448130   15.890507  
H   0.869823   0.869823   7.312200   
H   9.448130   7.708484   1.266107   
H   0.869823   16.286790   9.844413  
H   1.266107   7.708484   9.448130   
H   9.844413   16.286790   0.869823  
H   1.266107   9.448130   7.708484   
H   9.844413   0.869823   16.286790  
H   15.890507   7.708484   7.708484  
H   7.312200   16.286790   16.286790 
H   15.890507   9.448130   9.448130  
H   7.312200   0.869823   0.869823   
N   7.019525   16.580700   11.721570 
N   15.597832   8.002394   3.143263  
N   7.019525   0.575913   5.435044   
N   15.597832   9.154220   14.013350 
N   7.019525   11.721570   16.580700 
N   15.597832   3.143263   8.002394  
N   7.019525   5.435044   0.575913   
N   15.597832   14.013350   9.154220 
N   10.137088   16.580700   5.435044 
N   1.558781   8.002394   14.013350  
N   10.137088   0.575913   11.721570 
N   1.558781   9.154220   3.143263   
N   10.137088   11.721570   0.575913 
N   1.558781   3.143263   9.154220   
N   10.137088   5.435044   16.580700 
N   1.558781   14.013350   8.002394  
N   16.580700   7.019525   11.721570 
N   8.002394   15.597832   3.143263  
N   16.580700   10.137088   5.435044 
N   8.002394   1.558781   14.013350  
N   16.580700   11.721570   7.019525 
N   8.002394   3.143263   15.597832  
N   16.580700   5.435044   10.137088 
N   8.002394   14.013350   1.558781  
N   0.575913   7.019525   5.435044   
N   9.154220   15.597832   14.013350 
N   0.575913   10.137088   11.721570 
N   9.154220   1.558781   3.143263   
N   0.575913   11.721570   10.137088 
N   9.154220   3.143263   1.558781   
N   0.575913   5.435044   7.019525   
N   9.154220   14.013350   15.597832 
N   11.721570   7.019525   16.580700 
N   3.143263   15.597832   8.002394  
N   11.721570   10.137088   0.575913 
N   3.143263   1.558781   9.154220   
N   11.721570   16.580700   7.019525 
N   3.143263   8.002394   15.597832  
N   11.721570   0.575913   10.137088 
N   3.143263   9.154220   1.558781   
N   5.435044   7.019525   0.575913   
N   14.013350   15.597832   9.154220 
N   5.435044   10.137088   16.580700 
N   14.013350   1.558781   8.002394  
N   5.435044   16.580700   10.137088 
N   14.013350   8.002394   1.558781  
N   5.435044   0.575913   7.019525   
N   14.013350   9.154220   15.597832 
